
Note: No compatibility mode selected!


Circuit: ** sch_path: /home/sscspico/test_tools/coc_analog_vibes/isscc25/submitted_notebooks/analog_vibes/sim_sch/runs/run_2024-12-01_14-47-07/parameters/lin_params/run_10/tb_lin.sch

Doing analysis at TEMP = -40.000000 and TNOM = 27.000000


Initial Transient Solution
--------------------------

Node                                   Voltage
----                                   -------
avss                                         0
avdd                                       1.8
ibias1_10u                            0.837668
ipcm                                       1.2
vin                                    1.48284
vout                                    1.4783
x1.om                                  1.16308
x1.y                                   1.17303
x1.op                                  1.18286
x1.vss                                 1.17301
x1.vcc                                   1.173
x1.t2                                   0.5455
x1.t1                                 0.541794
x1.fb2                                0.891994
x1.fb1                                0.898435
x1.pb2                                0.854567
x1.pb1                                0.854567
x1.x                                  0.775135
x1.net1                               0.165388
ibias2_10u                             1.03206
x1.net2                               0.164457
x1.net3                               0.164536
x1.net4                               0.164536
v3#branch                                    0
v2#branch                                    0
v1#branch                         -0.000100808
v0#branch                         -9.50242e-14

 Reference value :  0.00000e+00
 Reference value :  9.21140e-03
 Reference value :  2.01544e-02
 Reference value :  2.76394e-02
 Reference value :  3.49725e-02
 Reference value :  4.41691e-02
No. of Data Rows : 1039
FFT: Time span: 0.0512 s, input length: 1025, zero padding: 1023
FFT: Frequency resolution: 19.5312 Hz, output length: 1025
h1                  =  -1.422575e+01
h2                  =  -6.854870e+01
h3                  =  -7.775025e+01
ngspice-43 done
