
Note: No compatibility mode selected!


Circuit: ** sch_path: /home/sscspico/test_tools/coc_analog_vibes/isscc25/submitted_notebooks/analog_vibes/sim_sch/runs/run_2024-12-01_15-04-14/parameters/lin_params/run_03/tb_lin.sch

Doing analysis at TEMP = -40.000000 and TNOM = 27.000000


Initial Transient Solution
--------------------------

Node                                   Voltage
----                                   -------
avss                                         0
avdd                                       1.7
ibias1_10u                             0.82852
ipcm                                       1.2
vin                                    1.48284
vout                                   1.48029
ibias2_10u                             1.02117
x1.om                                 0.856268
x1.y                                  0.868472
x1.op                                 0.880494
x1.vss                                0.868431
x1.vcc                                0.868421
x1.t2                                 0.555528
x1.t1                                 0.553442
x1.fb2                                0.880849
x1.fb1                                 0.88422
x1.pb2                                0.551245
x1.pb1                                0.551245
x1.x                                  0.758445
x1.net1                               0.164407
x1.net2                               0.163479
x1.net3                                0.16192
x1.net4                                0.16192
v3#branch                                    0
v2#branch                                    0
v1#branch                         -9.77186e-05
v0#branch                         -8.84449e-14

 Reference value :  0.00000e+00
 Reference value :  3.86400e-03
 Reference value :  9.36400e-03
 Reference value :  1.52140e-02
 Reference value :  1.84640e-02
 Reference value :  2.13640e-02
 Reference value :  2.58640e-02
 Reference value :  3.09640e-02
 Reference value :  3.67640e-02
 Reference value :  4.15140e-02
 Reference value :  4.85640e-02
No. of Data Rows : 1032
FFT: Time span: 0.0512 s, input length: 1025, zero padding: 1023
FFT: Frequency resolution: 19.5312 Hz, output length: 1025
h1                  =  -1.423677e+01
h2                  =  -6.549188e+01
h3                  =  -7.086453e+01
ngspice-43 done
