
Note: No compatibility mode selected!


Circuit: ** sch_path: /home/sscspico/test_tools/coc_analog_vibes/isscc25/submitted_notebooks/analog_vibes/sim_sch/runs/run_2024-12-01_14-47-07/parameters/lin_params/run_27/tb_lin.sch

Doing analysis at TEMP = 27.000000 and TNOM = 27.000000


Initial Transient Solution
--------------------------

Node                                   Voltage
----                                   -------
avss                                         0
avdd                                       1.7
ibias1_10u                            0.741903
ipcm                                       1.2
vin                                    1.48284
vout                                   1.47729
x1.om                                 0.908372
x1.y                                  0.924014
x1.op                                  0.93953
x1.vss                                0.923939
x1.vcc                                0.923996
x1.t2                                 0.630244
x1.t1                                  0.62705
x1.fb2                                0.802373
x1.fb1                                0.808596
x1.pb2                                0.568034
x1.pb1                                0.568034
x1.x                                  0.671986
x1.net1                                0.17355
ibias2_10u                            0.941763
x1.net2                               0.172509
x1.net3                               0.171443
x1.net4                               0.171443
v3#branch                                    0
v2#branch                                    0
v1#branch                         -0.000101131
v0#branch                         -1.76258e-13

 Reference value :  0.00000e+00
 Reference value :  1.01640e-02
 Reference value :  2.23140e-02
 Reference value :  3.43140e-02
 Reference value :  4.56640e-02
No. of Data Rows : 1032
FFT: Time span: 0.0512 s, input length: 1025, zero padding: 1023
FFT: Frequency resolution: 19.5312 Hz, output length: 1025
h1                  =  -1.434743e+01
h2                  =  -5.326315e+01
h3                  =  -5.722147e+01
ngspice-43 done
