
Note: No compatibility mode selected!


Circuit: ** sch_path: /home/sscspico/test_tools/coc_analog_vibes/isscc25/submitted_notebooks/analog_vibes/sim_sch/runs/run_2024-12-01_14-47-07/parameters/lin_params/run_30/tb_lin.sch

Doing analysis at TEMP = 125.000000 and TNOM = 27.000000


Initial Transient Solution
--------------------------

Node                                   Voltage
----                                   -------
avss                                         0
avdd                                       1.7
ibias1_10u                            0.748552
ipcm                                       1.2
vin                                    1.48284
vout                                   1.47176
x1.om                                  1.16194
x1.y                                   1.18296
x1.op                                  1.20359
x1.vss                                 1.18045
x1.vcc                                 1.18514
x1.t2                                  0.61481
x1.t1                                 0.608746
x1.fb2                                0.831485
x1.fb1                                0.845066
x1.pb2                                0.766799
x1.pb1                                0.766799
x1.x                                  0.676251
x1.net1                               0.225625
ibias2_10u                             1.01278
x1.net2                               0.223998
x1.net3                               0.224123
x1.net4                               0.224123
v3#branch                                    0
v2#branch                                    0
v1#branch                          -0.00010268
v0#branch                          3.50911e-14

 Reference value :  0.00000e+00
 Reference value :  1.21640e-02
 Reference value :  2.39640e-02
 Reference value :  3.90640e-02
 Reference value :  5.01140e-02
No. of Data Rows : 1032
FFT: Time span: 0.0512 s, input length: 1025, zero padding: 1023
FFT: Frequency resolution: 19.5312 Hz, output length: 1025
h1                  =  -1.443467e+01
h2                  =  -5.023521e+01
h3                  =  -5.582819e+01
ngspice-43 done
