
Note: No compatibility mode selected!


Circuit: ** sch_path: /home/sscspico/test_tools/coc_analog_vibes/isscc25/submitted_notebooks/analog_vibes/sim_pex/runs/run_2024-12-01_16-14-17/parameters/lin_params/run_04/tb_lin_pex.sch

Doing analysis at TEMP = -40.000000 and TNOM = 27.000000


Initial Transient Solution
--------------------------

Node                                   Voltage
----                                   -------
avss                                         0
avdd                                       1.8
ibias1_10u                            0.991713
ipcm                                       1.2
vin                                    1.48284
vout                                   1.48154
ibias2_10u                            0.754198
v3#branch                                    0
v2#branch                                    0
v1#branch                         -9.93857e-05
v0#branch                          9.28321e-16

 Reference value :  0.00000e+00
 Reference value :  7.45150e-03
 Reference value :  1.32515e-02
 Reference value :  2.02890e-02
 Reference value :  2.77390e-02
 Reference value :  3.25765e-02
 Reference value :  3.92015e-02
 Reference value :  4.13015e-02
 Reference value :  4.59952e-02
 Reference value :  5.07827e-02
No. of Data Rows : 1074
FFT: Time span: 0.0512 s, input length: 1025, zero padding: 1023
FFT: Frequency resolution: 19.5312 Hz, output length: 1025
h1                  =  -1.419586e+01
h2                  =  -7.872517e+01
h3                  =  -8.509024e+01
ngspice-43 done
