
Note: No compatibility mode selected!


Circuit: ** sch_path: /home/sscspico/test_tools/coc_analog_vibes/isscc25/submitted_notebooks/analog_vibes/sim_sch/runs/run_2024-12-01_15-04-14/parameters/lin_params/run_33/tb_lin.sch

Doing analysis at TEMP = 125.000000 and TNOM = 27.000000


Initial Transient Solution
--------------------------

Node                                   Voltage
----                                   -------
avss                                         0
avdd                                       1.7
ibias1_10u                            0.779614
ipcm                                       1.2
vin                                    1.48284
vout                                   1.47484
ibias2_10u                             1.06501
x1.om                                  1.08887
x1.y                                   1.10857
x1.op                                  1.12784
x1.vss                                 1.10635
x1.vcc                                 1.11045
x1.t2                                 0.591998
x1.t1                                 0.586382
x1.fb2                                0.864158
x1.fb1                                0.874951
x1.pb2                                0.677974
x1.pb1                                0.677974
x1.x                                  0.699698
x1.net1                               0.241558
x1.net2                               0.239792
x1.net3                                0.23893
x1.net4                                0.23893
v3#branch                                    0
v2#branch                                    0
v1#branch                         -9.99493e-05
v0#branch                          1.82643e-14

 Reference value :  0.00000e+00
 Reference value :  9.76400e-03
 Reference value :  1.91140e-02
 Reference value :  2.98140e-02
 Reference value :  3.85140e-02
 Reference value :  4.78140e-02
No. of Data Rows : 1032
FFT: Time span: 0.0512 s, input length: 1025, zero padding: 1023
FFT: Frequency resolution: 19.5312 Hz, output length: 1025
h1                  =  -1.436165e+01
h2                  =  -5.325424e+01
h3                  =  -5.892406e+01
ngspice-43 done
