
Note: No compatibility mode selected!


Circuit: ** sch_path: /home/sscspico/test_tools/coc_analog_vibes/isscc25/submitted_notebooks/analog_vibes/sim_sch/runs/run_2024-12-01_14-47-07/parameters/lin_params/run_18/tb_lin.sch

Doing analysis at TEMP = 27.000000 and TNOM = 27.000000


Initial Transient Solution
--------------------------

Node                                   Voltage
----                                   -------
avss                                         0
avdd                                       1.7
ibias1_10u                            0.806533
ipcm                                       1.2
vin                                    1.48284
vout                                   1.47866
x1.om                                 0.952358
x1.y                                  0.967363
x1.op                                 0.982065
x1.vss                                 0.96725
x1.vcc                                0.967308
x1.t2                                 0.573018
x1.t1                                 0.569687
x1.fb2                                0.872129
x1.fb1                                 0.87784
x1.pb2                                0.596871
x1.pb1                                0.596871
x1.x                                  0.730813
x1.net1                               0.197002
ibias2_10u                             1.03859
x1.net2                               0.195794
x1.net3                                0.19443
x1.net4                                0.19443
v3#branch                                    0
v2#branch                                    0
v1#branch                         -9.85849e-05
v0#branch                         -5.21262e-14

 Reference value :  0.00000e+00
 Reference value :  1.13140e-02
 Reference value :  2.08640e-02
 Reference value :  2.87640e-02
 Reference value :  3.70640e-02
 Reference value :  4.67140e-02
No. of Data Rows : 1032
FFT: Time span: 0.0512 s, input length: 1025, zero padding: 1023
FFT: Frequency resolution: 19.5312 Hz, output length: 1025
h1                  =  -1.427184e+01
h2                  =  -6.028315e+01
h3                  =  -6.580971e+01
ngspice-43 done
