
Note: No compatibility mode selected!


Circuit: ** sch_path: /home/sscspico/test_tools/coc_analog_vibes/isscc25/submitted_notebooks/analog_vibes/sim_sch/runs/run_2024-12-01_15-04-14/parameters/lin_params/run_00/tb_lin.sch

Doing analysis at TEMP = -40.000000 and TNOM = 27.000000


Initial Transient Solution
--------------------------

Node                                   Voltage
----                                   -------
avss                                         0
avdd                                       1.7
ibias1_10u                             0.80224
ipcm                                       1.2
vin                                    1.48284
vout                                   1.47908
ibias2_10u                            0.982394
x1.om                                  0.93813
x1.y                                  0.950912
x1.op                                 0.963559
x1.vss                                0.950883
x1.vcc                                0.950881
x1.t2                                 0.580564
x1.t1                                 0.577503
x1.fb2                                0.851285
x1.fb1                                0.856395
x1.pb2                                0.641202
x1.pb1                                0.641202
x1.x                                  0.735399
x1.net1                                0.15515
x1.net2                               0.154283
x1.net3                                0.15347
x1.net4                                0.15347
v3#branch                                    0
v2#branch                                    0
v1#branch                         -9.88622e-05
v0#branch                         -1.28508e-13

 Reference value :  0.00000e+00
 Reference value :  8.16400e-03
 Reference value :  1.85640e-02
 Reference value :  2.88140e-02
 Reference value :  3.52140e-02
 Reference value :  4.59640e-02
No. of Data Rows : 1032
FFT: Time span: 0.0512 s, input length: 1025, zero padding: 1023
FFT: Frequency resolution: 19.5312 Hz, output length: 1025
h1                  =  -1.425783e+01
h2                  =  -6.301306e+01
h3                  =  -6.818476e+01
ngspice-43 done
