
Note: No compatibility mode selected!


Circuit: ** sch_path: /home/sscspico/test_tools/coc_analog_vibes/isscc25/submitted_notebooks/analog_vibes/sim_pex/runs/run_2024-12-01_16-00-21/parameters/lin_params/run_01/tb_lin_pex.sch

Doing analysis at TEMP = -40.000000 and TNOM = 27.000000


Initial Transient Solution
--------------------------

Node                                   Voltage
----                                   -------
avss                                         0
avdd                                       1.8
ibias1_10u                            0.953186
ipcm                                       1.2
vin                                    1.48284
vout                                   1.48047
ibias2_10u                            0.729538
v3#branch                                    0
v2#branch                                    0
v1#branch                         -0.000100474
v0#branch                          1.97573e-15

 Reference value :  0.00000e+00
 Reference value :  7.50150e-03
 Reference value :  1.25390e-02
 Reference value :  1.88265e-02
 Reference value :  2.28640e-02
 Reference value :  2.80078e-02
 Reference value :  3.45078e-02
 Reference value :  3.95515e-02
 Reference value :  4.51078e-02
 Reference value :  5.04390e-02
No. of Data Rows : 1060
FFT: Time span: 0.0512 s, input length: 1025, zero padding: 1023
FFT: Frequency resolution: 19.5312 Hz, output length: 1025
h1                  =  -1.420021e+01
h2                  =  -7.460810e+01
h3                  =  -8.024089e+01
ngspice-43 done
