
Note: No compatibility mode selected!


Circuit: ** sch_path: /home/sscspico/test_tools/coc_analog_vibes/isscc25/submitted_notebooks/analog_vibes/sim_sch/runs/run_2024-12-01_14-47-07/parameters/lin_params/run_37/tb_lin.sch

Doing analysis at TEMP = 125.000000 and TNOM = 27.000000


Initial Transient Solution
--------------------------

Node                                   Voltage
----                                   -------
avss                                         0
avdd                                       1.8
ibias1_10u                            0.719118
ipcm                                       1.2
vin                                    1.48284
vout                                   1.47128
x1.om                                  1.33376
x1.y                                   1.34887
x1.op                                  1.36382
x1.vss                                 1.34757
x1.vcc                                 1.35001
x1.t2                                 0.632252
x1.t1                                 0.628309
x1.fb2                                 0.80795
x1.fb1                                0.820343
x1.pb2                                0.948307
x1.pb1                                0.948307
x1.x                                  0.663391
x1.net1                               0.212069
ibias2_10u                            0.964974
x1.net2                               0.210553
x1.net3                               0.211827
x1.net4                               0.211827
v3#branch                                    0
v2#branch                                    0
v1#branch                         -0.000109457
v0#branch                         -4.18051e-15

 Reference value :  0.00000e+00
 Reference value :  1.35640e-02
 Reference value :  2.25140e-02
 Reference value :  3.60640e-02
 Reference value :  5.00140e-02
No. of Data Rows : 1032
FFT: Time span: 0.0512 s, input length: 1025, zero padding: 1023
FFT: Frequency resolution: 19.5312 Hz, output length: 1025
h1                  =  -1.439948e+01
h2                  =  -5.308651e+01
h3                  =  -5.895858e+01
ngspice-43 done
