
Note: No compatibility mode selected!


Circuit: ** sch_path: /home/sscspico/test_tools/coc_analog_vibes/isscc25/submitted_notebooks/analog_vibes/sim_sch/runs/run_2024-12-01_14-47-07/parameters/lin_params/run_22/tb_lin.sch

Doing analysis at TEMP = 27.000000 and TNOM = 27.000000


Initial Transient Solution
--------------------------

Node                                   Voltage
----                                   -------
avss                                         0
avdd                                       1.8
ibias1_10u                            0.750968
ipcm                                       1.2
vin                                    1.48284
vout                                   1.47629
x1.om                                  1.21335
x1.y                                    1.2255
x1.op                                  1.23754
x1.vss                                 1.22545
x1.vcc                                  1.2254
x1.t2                                 0.622029
x1.t1                                 0.617756
x1.fb2                                0.812722
x1.fb1                                0.821155
x1.pb2                                0.870787
x1.pb1                                0.870787
x1.x                                  0.688206
x1.net1                                0.17468
ibias2_10u                            0.952872
x1.net2                               0.173634
x1.net3                                0.17421
x1.net4                                0.17421
v3#branch                                    0
v2#branch                                    0
v1#branch                         -0.000103581
v0#branch                         -4.72201e-14

 Reference value :  0.00000e+00
 Reference value :  1.22140e-02
 Reference value :  2.50140e-02
 Reference value :  3.98640e-02
No. of Data Rows : 1032
FFT: Time span: 0.0512 s, input length: 1025, zero padding: 1023
FFT: Frequency resolution: 19.5312 Hz, output length: 1025
h1                  =  -1.430012e+01
h2                  =  -6.024074e+01
h3                  =  -6.513521e+01
ngspice-43 done
