
Note: No compatibility mode selected!


Circuit: ** sch_path: /home/sscspico/test_tools/coc_analog_vibes/isscc25/submitted_notebooks/analog_vibes/sim_sch/runs/run_2024-12-01_15-04-14/parameters/lin_params/run_11/tb_lin.sch

Doing analysis at TEMP = -40.000000 and TNOM = 27.000000


Initial Transient Solution
--------------------------

Node                                   Voltage
----                                   -------
avss                                         0
avdd                                       1.9
ibias1_10u                            0.837668
ipcm                                       1.2
vin                                    1.48284
vout                                   1.47807
ibias2_10u                             1.03206
x1.om                                  1.26316
x1.y                                   1.27201
x1.op                                  1.28077
x1.vss                                 1.27199
x1.vcc                                 1.27198
x1.t2                                 0.545281
x1.t1                                  0.54138
x1.fb2                                0.892644
x1.fb1                                0.899471
x1.pb2                                0.954451
x1.pb1                                0.954451
x1.x                                  0.777323
x1.net1                               0.165388
x1.net2                               0.164457
x1.net3                               0.164983
x1.net4                               0.164983
v3#branch                                    0
v2#branch                                    0
v1#branch                          -0.00010175
v0#branch                         -9.97583e-14

 Reference value :  0.00000e+00
 Reference value :  4.54282e-03
 Reference value :  1.13612e-02
 Reference value :  1.61671e-02
 Reference value :  2.00678e-02
 Reference value :  2.52018e-02
 Reference value :  2.80014e-02
 Reference value :  3.23765e-02
 Reference value :  3.79603e-02
 Reference value :  4.10517e-02
 Reference value :  4.52705e-02
No. of Data Rows : 1046
FFT: Time span: 0.0512 s, input length: 1025, zero padding: 1023
FFT: Frequency resolution: 19.5312 Hz, output length: 1025
h1                  =  -1.420986e+01
h2                  =  -7.450264e+01
h3                  =  -8.901813e+01
ngspice-43 done
