
Note: No compatibility mode selected!


Circuit: ** sch_path: /home/sscspico/test_tools/coc_analog_vibes/isscc25/submitted_notebooks/analog_vibes/sim_sch/runs/run_2024-12-01_15-04-14/parameters/noise_params/run_01/tb_noise.sch

Doing analysis at TEMP = -40.000000 and TNOM = 27.000000

 Reference value :  1.00000e+03
No. of Data Rows : 61

No. of Data Rows : 1
ngspice-43 done
