
Note: No compatibility mode selected!


Circuit: ** sch_path: /home/sscspico/test_tools/coc_analog_vibes/isscc25/submitted_notebooks/analog_vibes/sim_pex/runs/run_2024-12-01_16-00-21/parameters/lin_params/run_10/tb_lin_pex.sch

Doing analysis at TEMP = -40.000000 and TNOM = 27.000000


Initial Transient Solution
--------------------------

Node                                   Voltage
----                                   -------
avss                                         0
avdd                                       1.8
ibias1_10u                             1.00278
ipcm                                       1.2
vin                                    1.48284
vout                                   1.47883
ibias2_10u                            0.763524
v3#branch                                    0
v2#branch                                    0
v1#branch                         -0.000100917
v0#branch                          1.75358e-15

 Reference value :  0.00000e+00
 Reference value :  6.10150e-03
 Reference value :  1.29452e-02
 Reference value :  1.80890e-02
 Reference value :  2.29203e-02
 Reference value :  3.16515e-02
 Reference value :  3.88890e-02
 Reference value :  4.72765e-02
No. of Data Rows : 1064
FFT: Time span: 0.0512 s, input length: 1025, zero padding: 1023
FFT: Frequency resolution: 19.5312 Hz, output length: 1025
h1                  =  -1.420321e+01
h2                  =  -6.975288e+01
h3                  =  -7.692905e+01
ngspice-43 done
