
Note: No compatibility mode selected!


Circuit: ** sch_path: /home/sscspico/test_tools/coc_analog_vibes/isscc25/submitted_notebooks/analog_vibes/sim_sch/runs/run_2024-12-01_15-04-14/parameters/lin_params/run_39/tb_lin.sch

Doing analysis at TEMP = 125.000000 and TNOM = 27.000000


Initial Transient Solution
--------------------------

Node                                   Voltage
----                                   -------
avss                                         0
avdd                                       1.7
ibias1_10u                            0.788926
ipcm                                       1.2
vin                                    1.48284
vout                                   1.46931
ibias2_10u                             1.07738
x1.om                                  1.28243
x1.y                                   1.30448
x1.op                                  1.32598
x1.vss                                  1.3017
x1.vcc                                 1.30682
x1.t2                                 0.582372
x1.t1                                 0.572446
x1.fb2                                 0.87209
x1.fb1                                0.891195
x1.pb2                                0.870348
x1.pb1                                0.870348
x1.x                                  0.714084
x1.net1                               0.243366
x1.net2                               0.241598
x1.net3                                0.24213
x1.net4                                0.24213
v3#branch                                    0
v2#branch                                    0
v1#branch                         -0.000101378
v0#branch                         -1.65148e-13

 Reference value :  0.00000e+00
 Reference value :  1.26140e-02
 Reference value :  2.39640e-02
 Reference value :  3.78640e-02
No. of Data Rows : 1032
FFT: Time span: 0.0512 s, input length: 1025, zero padding: 1023
FFT: Frequency resolution: 19.5312 Hz, output length: 1025
h1                  =  -1.446198e+01
h2                  =  -4.974562e+01
h3                  =  -5.611628e+01
ngspice-43 done
