
Note: No compatibility mode selected!


Circuit: ** sch_path: /home/sscspico/test_tools/coc_analog_vibes/isscc25/submitted_notebooks/analog_vibes/sim_sch/runs/run_2024-12-01_15-04-14/parameters/lin_params/run_25/tb_lin.sch

Doing analysis at TEMP = 27.000000 and TNOM = 27.000000


Initial Transient Solution
--------------------------

Node                                   Voltage
----                                   -------
avss                                         0
avdd                                       1.8
ibias1_10u                            0.815777
ipcm                                       1.2
vin                                    1.48284
vout                                   1.47675
ibias2_10u                             1.05007
x1.om                                  1.25694
x1.y                                   1.26838
x1.op                                  1.27966
x1.vss                                 1.26831
x1.vcc                                 1.26835
x1.t2                                 0.562895
x1.t1                                 0.558018
x1.fb2                                0.883547
x1.fb1                                0.892293
x1.pb2                                0.896799
x1.pb1                                0.896799
x1.x                                  0.748583
x1.net1                                0.19829
x1.net2                               0.197079
x1.net3                                0.19749
x1.net4                                0.19749
v3#branch                                    0
v2#branch                                    0
v1#branch                         -0.000101491
v0#branch                         -1.94236e-13

 Reference value :  0.00000e+00
 Reference value :  1.03640e-02
 Reference value :  2.04640e-02
 Reference value :  3.28640e-02
 Reference value :  4.52140e-02
No. of Data Rows : 1032
FFT: Time span: 0.0512 s, input length: 1025, zero padding: 1023
FFT: Frequency resolution: 19.5312 Hz, output length: 1025
h1                  =  -1.427557e+01
h2                  =  -6.375590e+01
h3                  =  -7.200722e+01
ngspice-43 done
