
Note: No compatibility mode selected!


Circuit: ** sch_path: /home/sscspico/test_tools/coc_analog_vibes/isscc25/submitted_notebooks/analog_vibes/sim_sch/runs/run_2024-12-01_15-04-14/parameters/cmrr_params/run_07/tb_cmrr.sch

Doing analysis at TEMP = -40.000000 and TNOM = 27.000000

 Reference value :  1.00000e+00
No. of Data Rows : 241
cmrr_dc             =  -5.806313e+01
ngspice-43 done
