
Note: No compatibility mode selected!


Circuit: ** sch_path: /home/sscspico/test_tools/coc_analog_vibes/isscc25/submitted_notebooks/analog_vibes/sim_sch/runs/run_2024-12-01_15-04-14/parameters/lin_params/run_32/tb_lin.sch

Doing analysis at TEMP = 125.000000 and TNOM = 27.000000


Initial Transient Solution
--------------------------

Node                                   Voltage
----                                   -------
avss                                         0
avdd                                       1.9
ibias1_10u                            0.748552
ipcm                                       1.2
vin                                    1.48284
vout                                   1.47544
ibias2_10u                             1.01278
x1.om                                  1.36938
x1.y                                   1.38067
x1.op                                  1.39188
x1.vss                                 1.37994
x1.vcc                                 1.38132
x1.t2                                  0.61475
x1.t1                                 0.610673
x1.fb2                                0.835995
x1.fb1                                0.845263
x1.pb2                                0.966452
x1.pb1                                0.966452
x1.x                                  0.685797
x1.net1                               0.225625
x1.net2                               0.223998
x1.net3                               0.225248
x1.net4                               0.225248
v3#branch                                    0
v2#branch                                    0
v1#branch                         -0.000105509
v0#branch                         -2.32453e-14

 Reference value :  0.00000e+00
 Reference value :  1.01640e-02
 Reference value :  1.84140e-02
 Reference value :  2.89640e-02
 Reference value :  4.13140e-02
No. of Data Rows : 1032
FFT: Time span: 0.0512 s, input length: 1025, zero padding: 1023
FFT: Frequency resolution: 19.5312 Hz, output length: 1025
h1                  =  -1.429642e+01
h2                  =  -6.167571e+01
h3                  =  -6.820201e+01
ngspice-43 done
