
Note: No compatibility mode selected!


Circuit: ** sch_path: /home/sscspico/test_tools/coc_analog_vibes/isscc25/submitted_notebooks/analog_vibes/sim_sch/runs/run_2024-12-01_15-04-14/parameters/lin_params/run_02/tb_lin.sch

Doing analysis at TEMP = -40.000000 and TNOM = 27.000000


Initial Transient Solution
--------------------------

Node                                   Voltage
----                                   -------
avss                                         0
avdd                                       1.9
ibias1_10u                             0.80224
ipcm                                       1.2
vin                                    1.48284
vout                                   1.47899
ibias2_10u                            0.982394
x1.om                                  1.13949
x1.y                                   1.14858
x1.op                                  1.15759
x1.vss                                 1.14856
x1.vcc                                 1.14856
x1.t2                                 0.580103
x1.t1                                 0.576967
x1.fb2                                0.853093
x1.fb1                                0.858484
x1.pb2                                0.840905
x1.pb1                                0.840905
x1.x                                  0.741143
x1.net1                                0.15515
x1.net2                               0.154283
x1.net3                                0.15446
x1.net4                                0.15446
v3#branch                                    0
v2#branch                                    0
v1#branch                         -0.000101296
v0#branch                         -3.18236e-15

 Reference value :  0.00000e+00
 Reference value :  3.31189e-03
 Reference value :  8.40832e-03
 Reference value :  1.26477e-02
 Reference value :  1.41980e-02
 Reference value :  1.82339e-02
 Reference value :  2.25228e-02
 Reference value :  2.61721e-02
 Reference value :  3.02218e-02
 Reference value :  3.34718e-02
 Reference value :  3.82692e-02
 Reference value :  4.35599e-02
 Reference value :  5.04091e-02
No. of Data Rows : 1044
FFT: Time span: 0.0512 s, input length: 1025, zero padding: 1023
FFT: Frequency resolution: 19.5312 Hz, output length: 1025
h1                  =  -1.424109e+01
h2                  =  -7.712498e+01
h3                  =  -8.722182e+01
ngspice-43 done
