
No compatibility mode selected!


Circuit: 

Doing analysis at TEMP = 75.000000 and TNOM = 27.000000


No. of Data Rows : 1501
ERROR: (internal)  This operation is not defined for display type PrinterOnly.
Can't open viewport for graphics.
ERROR: (internal)  This operation is not defined for display type PrinterOnly.
Can't open viewport for graphics.
unity_gain_freq_ext =  8.797321e+07
unity_gain_freq_ideal=  1.021585e+08
dc_gain_ext         =  3.485987e+01
dc_gain_ideal       =  3.739503e+01
Error: no such vector as ph(v(out_ext).
 meas ac phase_at_unity_ext find ph(v(out_ext) at=8.797321e+07 failed!

Error: no such vector as ph(v(out)).
 meas ac phase_at_unity_ideal find ph(v(out)) at=1.021585e+08 failed!

Error(parse.c--checkvalid): phase_at_unity_ext: zero length vector.
Error: RHS "180 * phase_at_unity_ext / pi" invalid
Error(parse.c--checkvalid): phase_at_unity_ideal: zero length vector.
Error: RHS "180 * phase_at_unity_ideal / pi" invalid
Error(parse.c--checkvalid): phase_deg_at_unity_ext: zero length vector.
Error: RHS "180 + phase_deg_at_unity_ext" invalid
Error(parse.c--checkvalid): phase_deg_at_unity_ideal: zero length vector.
Error: RHS "180 + phase_deg_at_unity_ideal" invalid
Error(parse.c--checkvalid): phase_margin_ext: zero length vector.
Error(parse.c--checkvalid): phase_margin_ideal: zero length vector.
p1_val_ext          =  1.692357e+06
p2_val_ext          =  1.597460e+08

Error: measure  p1_val  (WHEN) : no such vector as 'phase_vector_ideal'
 meas ac p1_val when phase_vector_ideal=-45 cross=1 failed!


Error: measure  p2_val  (WHEN) : no such vector as 'phase_vector_ideal'
 meas ac p2_val when phase_vector_ideal=-135 cross=1 failed!

dc_gain_ideal       =  3.739503e+01
Doing analysis at TEMP = 75.000000 and TNOM = 27.000000


No. of Data Rows : 1
kgm1 = 1.658155e+01
kgm2 = 1.658155e+01
kgm3 = 5.867261e+00
kgm4 = 5.867261e+00
kgm5 = 1.622363e+01
kgm6 = 1.622363e+01
kgm7 = 6.103405e+00
kgm8 = 6.103405e+00
id1 = 3.207132e-05
id2 = 3.207132e-05
id3 = 3.207125e-05
id4 = 3.207125e-05
id5 = 1.789309e-04
id6 = 1.789309e-04
id7 = 1.789309e-04
id8 = 1.789309e-04
kcgg1 = 1.609745e-09
kcgg4 = 4.308563e-10
kcgg6 = 1.252154e-09
kcgg8 = 4.599982e-10
kco = 1.712153e-09
current_consumption = 2.110022e-04
Note: No ".plot", ".print", or ".fourier" lines; no simulations run
