
Note: No compatibility mode selected!


Circuit: ** sch_path: /home/sscspico/test_tools/coc_analog_vibes/isscc25/submitted_notebooks/analog_vibes/sim_pex/runs/run_2024-12-01_16-14-17/parameters/lin_params/run_09/tb_lin_pex.sch

Doing analysis at TEMP = -40.000000 and TNOM = 27.000000


Initial Transient Solution
--------------------------

Node                                   Voltage
----                                   -------
avss                                         0
avdd                                       1.7
ibias1_10u                             1.00278
ipcm                                       1.2
vin                                    1.48284
vout                                   1.47859
ibias2_10u                            0.763524
v3#branch                                    0
v2#branch                                    0
v1#branch                         -9.95755e-05
v0#branch                          9.08771e-16

 Reference value :  0.00000e+00
 Reference value :  9.15775e-03
 Reference value :  1.90578e-02
 Reference value :  3.21953e-02
 Reference value :  4.22453e-02
No. of Data Rows : 1045
FFT: Time span: 0.0512 s, input length: 1025, zero padding: 1023
FFT: Frequency resolution: 19.5312 Hz, output length: 1025
h1                  =  -1.421340e+01
h2                  =  -6.152326e+01
h3                  =  -6.726850e+01
ngspice-43 done
