
Note: No compatibility mode selected!


Circuit: ** sch_path: /home/sscspico/test_tools/coc_analog_vibes/isscc25/submitted_notebooks/analog_vibes/sim_pex/runs/run_2024-12-01_16-14-17/parameters/ac_params/run_17/tb_ac_pex.sch

Doing analysis at TEMP = 27.000000 and TNOM = 27.000000

 Reference value :  1.00000e+00
No. of Data Rows : 241
a0                  =  4.613429e+01
ugf                 =  9.537055e+05
pm                  =  8.895745e+01
ngspice-43 done
