
Note: No compatibility mode selected!


Circuit: ** sch_path: /home/sscspico/test_tools/coc_analog_vibes/isscc25/submitted_notebooks/analog_vibes/sim_sch/runs/run_2024-12-01_14-47-07/parameters/lin_params/run_15/tb_lin.sch

Doing analysis at TEMP = 27.000000 and TNOM = 27.000000


Initial Transient Solution
--------------------------

Node                                   Voltage
----                                   -------
avss                                         0
avdd                                       1.7
ibias1_10u                            0.778189
ipcm                                       1.2
vin                                    1.48284
vout                                   1.47708
x1.om                                  1.03228
x1.y                                   1.04802
x1.op                                  1.06354
x1.vss                                 1.04792
x1.vcc                                 1.04797
x1.t2                                 0.598658
x1.t1                                 0.594261
x1.fb2                                0.840196
x1.fb1                                0.848009
x1.pb2                                0.686838
x1.pb1                                0.686838
x1.x                                   0.70654
x1.net1                               0.185075
ibias2_10u                            0.994275
x1.net2                               0.183955
x1.net3                               0.183443
x1.net4                               0.183443
v3#branch                                    0
v2#branch                                    0
v1#branch                         -9.99208e-05
v0#branch                           -8.319e-14

 Reference value :  0.00000e+00
 Reference value :  1.25140e-02
 Reference value :  2.64640e-02
 Reference value :  4.38140e-02
No. of Data Rows : 1032
FFT: Time span: 0.0512 s, input length: 1025, zero padding: 1023
FFT: Frequency resolution: 19.5312 Hz, output length: 1025
h1                  =  -1.431014e+01
h2                  =  -5.702576e+01
h3                  =  -6.202705e+01
ngspice-43 done
