
Note: No compatibility mode selected!


Circuit: ** sch_path: /home/sscspico/test_tools/coc_analog_vibes/isscc25/submitted_notebooks/analog_vibes/sim_sch/runs/run_2024-12-01_14-47-07/parameters/lin_params/run_06/tb_lin.sch

Doing analysis at TEMP = -40.000000 and TNOM = 27.000000


Initial Transient Solution
--------------------------

Node                                   Voltage
----                                   -------
avss                                         0
avdd                                       1.7
ibias1_10u                            0.776718
ipcm                                       1.2
vin                                    1.48284
vout                                   1.47769
x1.om                                  1.02005
x1.y                                   1.03366
x1.op                                  1.04715
x1.vss                                 1.03364
x1.vcc                                 1.03363
x1.t2                                 0.605275
x1.t1                                 0.601179
x1.fb2                                0.822818
x1.fb1                                0.829811
x1.pb2                                0.726107
x1.pb1                                0.726107
x1.x                                  0.712608
x1.net1                               0.146859
ibias2_10u                            0.945475
x1.net2                               0.146046
x1.net3                               0.145808
x1.net4                               0.145808
v3#branch                                    0
v2#branch                                    0
v1#branch                         -0.000100156
v0#branch                          2.49234e-14

 Reference value :  0.00000e+00
 Reference value :  9.36400e-03
 Reference value :  1.88140e-02
 Reference value :  2.99140e-02
 Reference value :  3.97140e-02
 Reference value :  5.09640e-02
No. of Data Rows : 1032
FFT: Time span: 0.0512 s, input length: 1025, zero padding: 1023
FFT: Frequency resolution: 19.5312 Hz, output length: 1025
h1                  =  -1.429069e+01
h2                  =  -5.944120e+01
h3                  =  -6.399065e+01
ngspice-43 done
