
Note: No compatibility mode selected!


Circuit: ** sch_path: /home/sscspico/test_tools/coc_analog_vibes/isscc25/submitted_notebooks/analog_vibes/sim_sch/runs/run_2024-12-01_15-04-14/parameters/lin_params/run_01/tb_lin.sch

Doing analysis at TEMP = -40.000000 and TNOM = 27.000000


Initial Transient Solution
--------------------------

Node                                   Voltage
----                                   -------
avss                                         0
avdd                                       1.8
ibias1_10u                             0.80224
ipcm                                       1.2
vin                                    1.48284
vout                                   1.47928
ibias2_10u                            0.982394
x1.om                                  1.03962
x1.y                                   1.04965
x1.op                                  1.05959
x1.vss                                 1.04963
x1.vcc                                 1.04963
x1.t2                                 0.580321
x1.t1                                 0.577423
x1.fb2                                0.852426
x1.fb1                                0.857355
x1.pb2                                0.741045
x1.pb1                                0.741045
x1.x                                  0.738926
x1.net1                                0.15515
x1.net2                               0.154283
x1.net3                               0.153991
x1.net4                               0.153991
v3#branch                                    0
v2#branch                                    0
v1#branch                         -0.000100294
v0#branch                          9.32778e-15

 Reference value :  0.00000e+00
 Reference value :  7.16400e-03
 Reference value :  1.52140e-02
 Reference value :  2.36640e-02
 Reference value :  3.35640e-02
 Reference value :  4.32136e-02
 Reference value :  5.09134e-02
No. of Data Rows : 1032
FFT: Time span: 0.0512 s, input length: 1025, zero padding: 1023
FFT: Frequency resolution: 19.5312 Hz, output length: 1025
h1                  =  -1.423558e+01
h2                  =  -7.195754e+01
h3                  =  -7.912156e+01
ngspice-43 done
