
Note: No compatibility mode selected!


Circuit: ** sch_path: /home/sscspico/test_tools/coc_analog_vibes/isscc25/submitted_notebooks/analog_vibes/sim_sch/runs/run_2024-12-01_14-47-07/parameters/lin_params/run_12/tb_lin.sch

Doing analysis at TEMP = -40.000000 and TNOM = 27.000000


Initial Transient Solution
--------------------------

Node                                   Voltage
----                                   -------
avss                                         0
avdd                                       1.7
ibias1_10u                            0.767653
ipcm                                       1.2
vin                                    1.48284
vout                                   1.47912
x1.om                                 0.817136
x1.y                                  0.829753
x1.op                                 0.842426
x1.vss                                0.829772
x1.vcc                                 0.82977
x1.t2                                 0.614962
x1.t1                                 0.612064
x1.fb2                                0.812097
x1.fb1                                0.816453
x1.pb2                                0.519384
x1.pb1                                0.519384
x1.x                                  0.699159
x1.net1                               0.145855
ibias2_10u                            0.934622
x1.net2                               0.145046
x1.net3                               0.143697
x1.net4                               0.143697
v3#branch                                    0
v2#branch                                    0
v1#branch                         -9.80482e-05
v0#branch                         -3.77245e-14

 Reference value :  0.00000e+00
 Reference value :  1.55640e-02
 Reference value :  3.16140e-02
 Reference value :  4.41640e-02
No. of Data Rows : 1032
FFT: Time span: 0.0512 s, input length: 1025, zero padding: 1023
FFT: Frequency resolution: 19.5312 Hz, output length: 1025
h1                  =  -1.430094e+01
h2                  =  -5.623796e+01
h3                  =  -5.967494e+01
ngspice-43 done
