
Note: No compatibility mode selected!


Circuit: ** sch_path: /home/sscspico/test_tools/coc_analog_vibes/isscc25/submitted_notebooks/analog_vibes/sim_pex/runs/run_2024-12-01_16-00-21/parameters/lin_params/run_36/tb_lin_pex.sch

Doing analysis at TEMP = 125.000000 and TNOM = 27.000000


Initial Transient Solution
--------------------------

Node                                   Voltage
----                                   -------
avss                                         0
avdd                                       1.7
ibias1_10u                            0.922742
ipcm                                       1.2
vin                                    1.48284
vout                                   1.46791
ibias2_10u                            0.625251
v3#branch                                    0
v2#branch                                    0
v1#branch                          -0.00010914
v0#branch                          1.72405e-16

 Reference value :  0.00000e+00
 Reference value :  8.46400e-03
 Reference value :  1.72640e-02
 Reference value :  2.90140e-02
 Reference value :  3.88640e-02
 Reference value :  4.92140e-02
No. of Data Rows : 1032
FFT: Time span: 0.0512 s, input length: 1025, zero padding: 1023
FFT: Frequency resolution: 19.5312 Hz, output length: 1025
h1                  =  -1.451180e+01
h2                  =  -4.804503e+01
h3                  =  -5.390286e+01
ngspice-43 done
