
Note: No compatibility mode selected!


Circuit: ** sch_path: /home/sscspico/test_tools/coc_analog_vibes/isscc25/submitted_notebooks/analog_vibes/sim_pex/runs/run_2024-12-01_16-00-21/parameters/lin_params/run_33/tb_lin_pex.sch

Doing analysis at TEMP = 125.000000 and TNOM = 27.000000


Initial Transient Solution
--------------------------

Node                                   Voltage
----                                   -------
avss                                         0
avdd                                       1.7
ibias1_10u                             1.02049
ipcm                                       1.2
vin                                    1.48284
vout                                    1.4762
ibias2_10u                            0.680238
v3#branch                                    0
v2#branch                                    0
v1#branch                         -0.000100421
v0#branch                          8.16259e-16

 Reference value :  0.00000e+00
 Reference value :  9.41400e-03
 Reference value :  2.08140e-02
 Reference value :  3.30640e-02
 Reference value :  4.01140e-02
No. of Data Rows : 1032
FFT: Time span: 0.0512 s, input length: 1025, zero padding: 1023
FFT: Frequency resolution: 19.5312 Hz, output length: 1025
h1                  =  -1.433774e+01
h2                  =  -5.447154e+01
h3                  =  -5.988739e+01
ngspice-43 done
