
Note: No compatibility mode selected!


Circuit: ** sch_path: /home/sscspico/test_tools/coc_analog_vibes/isscc25/submitted_notebooks/analog_vibes/sim_sch/runs/run_2024-12-01_15-04-14/parameters/lin_params/run_24/tb_lin.sch

Doing analysis at TEMP = 27.000000 and TNOM = 27.000000


Initial Transient Solution
--------------------------

Node                                   Voltage
----                                   -------
avss                                         0
avdd                                       1.7
ibias1_10u                            0.815777
ipcm                                       1.2
vin                                    1.48284
vout                                   1.47527
ibias2_10u                             1.05007
x1.om                                  1.15308
x1.y                                   1.16954
x1.op                                  1.18566
x1.vss                                 1.16941
x1.vcc                                 1.16943
x1.t2                                 0.563199
x1.t1                                 0.557143
x1.fb2                                0.881452
x1.fb1                                0.892238
x1.pb2                                 0.79693
x1.pb1                                 0.79693
x1.x                                  0.743905
x1.net1                                0.19829
x1.net2                               0.197079
x1.net3                               0.196978
x1.net4                               0.196978
v3#branch                                    0
v2#branch                                    0
v1#branch                         -0.000100002
v0#branch                         -7.94379e-14

 Reference value :  0.00000e+00
 Reference value :  1.26640e-02
 Reference value :  2.17140e-02
 Reference value :  3.26140e-02
 Reference value :  4.41140e-02
No. of Data Rows : 1032
FFT: Time span: 0.0512 s, input length: 1025, zero padding: 1023
FFT: Frequency resolution: 19.5312 Hz, output length: 1025
h1                  =  -1.433435e+01
h2                  =  -5.578791e+01
h3                  =  -6.199119e+01
ngspice-43 done
