
Note: No compatibility mode selected!


Circuit: ** sch_path: /home/sscspico/test_tools/coc_analog_vibes/isscc25/submitted_notebooks/analog_vibes/sim_sch/runs/run_2024-12-01_15-04-14/parameters/lin_params/run_26/tb_lin.sch

Doing analysis at TEMP = 27.000000 and TNOM = 27.000000


Initial Transient Solution
--------------------------

Node                                   Voltage
----                                   -------
avss                                         0
avdd                                       1.9
ibias1_10u                            0.815777
ipcm                                       1.2
vin                                    1.48284
vout                                   1.47692
ibias2_10u                             1.05007
x1.om                                  1.35756
x1.y                                   1.36733
x1.op                                    1.377
x1.vss                                 1.36728
x1.vcc                                  1.3671
x1.t2                                 0.562644
x1.t1                                 0.557893
x1.fb2                                0.884558
x1.fb1                                0.893126
x1.pb2                                 0.99668
x1.pb1                                 0.99668
x1.x                                  0.751142
x1.net1                                0.19829
x1.net2                               0.197079
x1.net3                               0.197957
x1.net4                               0.197957
v3#branch                                    0
v2#branch                                    0
v1#branch                         -0.000102415
v0#branch                         -3.82394e-14

 Reference value :  0.00000e+00
 Reference value :  1.11640e-02
 Reference value :  2.05140e-02
 Reference value :  2.81640e-02
 Reference value :  3.53140e-02
 Reference value :  4.27640e-02
No. of Data Rows : 1032
FFT: Time span: 0.0512 s, input length: 1025, zero padding: 1023
FFT: Frequency resolution: 19.5312 Hz, output length: 1025
h1                  =  -1.426032e+01
h2                  =  -6.989109e+01
h3                  =  -8.338241e+01
ngspice-43 done
