
Note: No compatibility mode selected!


Circuit: ** sch_path: /home/sscspico/test_tools/coc_analog_vibes/isscc25/submitted_notebooks/analog_vibes/sim_sch/runs/run_2024-12-01_15-04-14/parameters/lin_params/run_36/tb_lin.sch

Doing analysis at TEMP = 125.000000 and TNOM = 27.000000


Initial Transient Solution
--------------------------

Node                                   Voltage
----                                   -------
avss                                         0
avdd                                       1.7
ibias1_10u                            0.719118
ipcm                                       1.2
vin                                    1.48284
vout                                   1.46685
ibias2_10u                            0.964974
x1.om                                  1.22688
x1.y                                   1.25012
x1.op                                  1.27294
x1.vss                                 1.24713
x1.vcc                                 1.25271
x1.t2                                 0.631569
x1.t1                                 0.626063
x1.fb2                                0.804394
x1.fb1                                0.821426
x1.pb2                                0.848491
x1.pb1                                0.848491
x1.x                                  0.656911
x1.net1                               0.212069
x1.net2                               0.210553
x1.net3                               0.211329
x1.net4                               0.211329
v3#branch                                    0
v2#branch                                    0
v1#branch                         -0.000107448
v0#branch                         -9.83018e-14

 Reference value :  0.00000e+00
 Reference value :  1.42140e-02
 Reference value :  2.83140e-02
 Reference value :  4.19140e-02
No. of Data Rows : 1032
FFT: Time span: 0.0512 s, input length: 1025, zero padding: 1023
FFT: Frequency resolution: 19.5312 Hz, output length: 1025
h1                  =  -1.453500e+01
h2                  =  -4.740877e+01
h3                  =  -5.328101e+01
ngspice-43 done
