
Note: No compatibility mode selected!


Circuit: ** sch_path: /home/sscspico/test_tools/coc_analog_vibes/isscc25/submitted_notebooks/analog_vibes/sim_sch/runs/run_2024-12-01_14-47-07/parameters/lin_params/run_40/tb_lin.sch

Doing analysis at TEMP = 125.000000 and TNOM = 27.000000


Initial Transient Solution
--------------------------

Node                                   Voltage
----                                   -------
avss                                         0
avdd                                       1.8
ibias1_10u                            0.788926
ipcm                                       1.2
vin                                    1.48284
vout                                   1.47332
x1.om                                  1.38924
x1.y                                   1.40326
x1.op                                  1.41707
x1.vss                                 1.40221
x1.vcc                                 1.40411
x1.t2                                  0.58206
x1.t1                                 0.575047
x1.fb2                                0.876244
x1.fb1                                0.889822
x1.pb2                                0.970204
x1.pb1                                0.970204
x1.x                                  0.720692
x1.net1                               0.243366
ibias2_10u                             1.07738
x1.net2                               0.241598
x1.net3                                0.24269
x1.net4                                0.24269
v3#branch                                    0
v2#branch                                    0
v1#branch                         -0.000103149
v0#branch                           5.2001e-14

 Reference value :  0.00000e+00
 Reference value :  1.23140e-02
 Reference value :  2.49140e-02
 Reference value :  3.79140e-02
 Reference value :  5.01640e-02
No. of Data Rows : 1032
FFT: Time span: 0.0512 s, input length: 1025, zero padding: 1023
FFT: Frequency resolution: 19.5312 Hz, output length: 1025
h1                  =  -1.434541e+01
h2                  =  -5.638203e+01
h3                  =  -6.337741e+01
ngspice-43 done
