
Note: No compatibility mode selected!


Circuit: ** sch_path: /home/sscspico/test_tools/coc_analog_vibes/isscc25/submitted_notebooks/analog_vibes/sim_pex/runs/run_2024-12-01_16-14-17/parameters/lin_params/run_03/tb_lin_pex.sch

Doing analysis at TEMP = -40.000000 and TNOM = 27.000000


Initial Transient Solution
--------------------------

Node                                   Voltage
----                                   -------
avss                                         0
avdd                                       1.7
ibias1_10u                            0.991713
ipcm                                       1.2
vin                                    1.48284
vout                                   1.48163
ibias2_10u                            0.754198
v3#branch                                    0
v2#branch                                    0
v1#branch                         -9.79082e-05
v0#branch                           5.2104e-16

 Reference value :  0.00000e+00
 Reference value :  1.42640e-02
 Reference value :  2.29578e-02
 Reference value :  3.42015e-02
 Reference value :  4.21453e-02
 Reference value :  4.93445e-02
No. of Data Rows : 1044
FFT: Time span: 0.0512 s, input length: 1025, zero padding: 1023
FFT: Frequency resolution: 19.5312 Hz, output length: 1025
h1                  =  -1.416576e+01
h2                  =  -7.043414e+01
h3                  =  -7.423223e+01
ngspice-43 done
