
No compatibility mode selected!


Circuit: 

Doing analysis at TEMP = 25.000000 and TNOM = 27.000000


No. of Data Rows : 1201
ERROR: (internal)  This operation is not defined for display type PrinterOnly.
Can't open viewport for graphics.
ERROR: (internal)  This operation is not defined for display type PrinterOnly.
Can't open viewport for graphics.
unity_gain_freq_ext =  9.450312e+07
unity_gain_freq_ideal=  1.036710e+08
dc_gain_ext         =  3.536490e+01
dc_gain_ideal       =  3.887972e+01
Error: no such vector as ph(v(out_ext).
 meas ac phase_at_unity_ext find ph(v(out_ext) at=9.450312e+07 failed!

Error: no such vector as ph(v(out)).
 meas ac phase_at_unity_ideal find ph(v(out)) at=1.036710e+08 failed!

Error(parse.c--checkvalid): phase_at_unity_ext: zero length vector.
Error: RHS "180 * phase_at_unity_ext / pi" invalid
Error(parse.c--checkvalid): phase_at_unity_ideal: zero length vector.
Error: RHS "180 * phase_at_unity_ideal / pi" invalid
Error(parse.c--checkvalid): phase_deg_at_unity_ext: zero length vector.
Error: RHS "180 + phase_deg_at_unity_ext" invalid
Error(parse.c--checkvalid): phase_deg_at_unity_ideal: zero length vector.
Error: RHS "180 + phase_deg_at_unity_ideal" invalid
Error(parse.c--checkvalid): phase_margin_ext: zero length vector.
Error(parse.c--checkvalid): phase_margin_ideal: zero length vector.
p1_val_ext          =  1.721776e+06
p2_val_ext          =  1.682067e+08

Error: measure  p1_val  (WHEN) : no such vector as 'phase_vector_ideal'
 meas ac p1_val when phase_vector_ideal=-45 cross=1 failed!


Error: measure  p2_val  (WHEN) : no such vector as 'phase_vector_ideal'
 meas ac p2_val when phase_vector_ideal=-135 cross=1 failed!

dc_gain_ideal       =  3.887972e+01
Doing analysis at TEMP = 25.000000 and TNOM = 27.000000


No. of Data Rows : 1
kgm1 = 1.600293e+01
kgm2 = 1.600293e+01
kgm3 = 5.517261e+00
kgm4 = 5.517261e+00
kgm5 = 6.204247e+00
kgm6 = 6.204247e+00
kgm7 = 5.868003e+00
kgm8 = 5.868003e+00
id1 = 2.999626e-05
id2 = 2.999626e-05
id3 = 2.999626e-05
id4 = 2.999626e-05
id5 = 1.843558e-04
id6 = 1.843558e-04
id7 = 1.843558e-04
id8 = 1.843558e-04
kcgg1 = 1.030684e-09
kcgg4 = 3.486094e-10
kcgg6 = 1.236185e-10
kcgg8 = 3.851659e-10
kco = 5.087844e-10
current_consumption = 2.143521e-04
Note: No ".plot", ".print", or ".fourier" lines; no simulations run
