
Note: No compatibility mode selected!


Circuit: ** sch_path: /home/sscspico/test_tools/coc_analog_vibes/isscc25/submitted_notebooks/analog_vibes/sim_sch/runs/run_2024-12-01_15-04-14/parameters/lin_params/run_20/tb_lin.sch

Doing analysis at TEMP = 27.000000 and TNOM = 27.000000


Initial Transient Solution
--------------------------

Node                                   Voltage
----                                   -------
avss                                         0
avdd                                       1.9
ibias1_10u                            0.806533
ipcm                                       1.2
vin                                    1.48284
vout                                    1.4791
ibias2_10u                             1.03859
x1.om                                  1.15526
x1.y                                   1.16481
x1.op                                  1.17425
x1.vss                                 1.16477
x1.vcc                                 1.16478
x1.t2                                 0.572428
x1.t1                                  0.56944
x1.fb2                                0.874712
x1.fb1                                0.880024
x1.pb2                                0.796536
x1.pb1                                0.796536
x1.x                                  0.738144
x1.net1                               0.197002
x1.net2                               0.195794
x1.net3                               0.195741
x1.net4                               0.195741
v3#branch                                    0
v2#branch                                    0
v1#branch                         -0.000101085
v0#branch                         -3.98477e-14

 Reference value :  0.00000e+00
 Reference value :  7.91400e-03
 Reference value :  1.88640e-02
 Reference value :  3.15140e-02
 Reference value :  4.61140e-02
No. of Data Rows : 1032
FFT: Time span: 0.0512 s, input length: 1025, zero padding: 1023
FFT: Frequency resolution: 19.5312 Hz, output length: 1025
h1                  =  -1.423278e+01
h2                  =  -7.431766e+01
h3                  =  -8.684617e+01
ngspice-43 done
