
Note: No compatibility mode selected!


Circuit: ** sch_path: /home/sscspico/test_tools/coc_analog_vibes/isscc25/submitted_notebooks/analog_vibes/sim_pex/runs/run_2024-12-01_16-14-17/parameters/lin_params/run_27/tb_lin_pex.sch

Doing analysis at TEMP = 27.000000 and TNOM = 27.000000


Initial Transient Solution
--------------------------

Node                                   Voltage
----                                   -------
avss                                         0
avdd                                       1.7
ibias1_10u                            0.906854
ipcm                                       1.2
vin                                    1.48284
vout                                   1.47926
ibias2_10u                            0.660873
v3#branch                                    0
v2#branch                                    0
v1#branch                         -0.000102298
v0#branch                          1.52965e-15

 Reference value :  0.00000e+00
 Reference value :  1.87640e-02
 Reference value :  3.84140e-02
No. of Data Rows : 1032
FFT: Time span: 0.0512 s, input length: 1025, zero padding: 1023
FFT: Frequency resolution: 19.5312 Hz, output length: 1025
h1                  =  -1.431208e+01
h2                  =  -5.469996e+01
h3                  =  -5.828894e+01
ngspice-43 done
