
Note: No compatibility mode selected!


Circuit: ** sch_path: /home/sscspico/test_tools/coc_analog_vibes/isscc25/submitted_notebooks/analog_vibes/sim_sch/runs/run_2024-12-01_15-04-14/parameters/lin_params/run_04/tb_lin.sch

Doing analysis at TEMP = -40.000000 and TNOM = 27.000000


Initial Transient Solution
--------------------------

Node                                   Voltage
----                                   -------
avss                                         0
avdd                                       1.8
ibias1_10u                             0.82852
ipcm                                       1.2
vin                                    1.48284
vout                                   1.48037
ibias2_10u                             1.02117
x1.om                                 0.957424
x1.y                                  0.967027
x1.op                                  0.97651
x1.vss                                0.967002
x1.vcc                                0.966472
x1.t2                                 0.555254
x1.t1                                 0.553229
x1.fb2                                0.882081
x1.fb1                                0.885488
x1.pb2                                0.651077
x1.pb1                                0.651077
x1.x                                  0.762193
x1.net1                               0.164407
x1.net2                               0.163479
x1.net3                               0.162563
x1.net4                               0.162563
v3#branch                                    0
v2#branch                                    0
v1#branch                            -9.92e-05
v0#branch                         -1.45347e-13

 Reference value :  0.00000e+00
 Reference value :  4.31400e-03
 Reference value :  8.60775e-03
 Reference value :  1.61577e-02
 Reference value :  2.05015e-02
 Reference value :  2.43453e-02
 Reference value :  3.03453e-02
 Reference value :  3.62390e-02
 Reference value :  4.19828e-02
 Reference value :  4.80390e-02
No. of Data Rows : 1045
FFT: Time span: 0.0512 s, input length: 1025, zero padding: 1023
FFT: Frequency resolution: 19.5312 Hz, output length: 1025
h1                  =  -1.417300e+01
h2                  =  -7.433124e+01
h3                  =  -8.369401e+01
ngspice-43 done
