
Note: No compatibility mode selected!


Circuit: ** sch_path: /home/sscspico/test_tools/coc_analog_vibes/isscc25/submitted_notebooks/analog_vibes/sim_sch/runs/run_2024-12-01_14-47-07/parameters/lin_params/run_43/tb_lin.sch

Doing analysis at TEMP = 125.000000 and TNOM = 27.000000


Initial Transient Solution
--------------------------

Node                                   Voltage
----                                   -------
avss                                         0
avdd                                       1.8
ibias1_10u                            0.710121
ipcm                                       1.2
vin                                    1.48284
vout                                   1.47449
x1.om                                   1.1348
x1.y                                   1.14907
x1.op                                   1.1632
x1.vss                                 1.14791
x1.vcc                                  1.1501
x1.t2                                 0.638214
x1.t1                                 0.636003
x1.fb2                                0.802276
x1.fb1                                0.810511
x1.pb2                                0.753097
x1.pb1                                0.753097
x1.x                                  0.652981
x1.net1                               0.210691
ibias2_10u                            0.953469
x1.net2                               0.209177
x1.net3                                0.20946
x1.net4                                0.20946
v3#branch                                    0
v2#branch                                    0
v1#branch                         -0.000109742
v0#branch                         -8.47874e-15

 Reference value :  0.00000e+00
 Reference value :  1.30140e-02
 Reference value :  2.80640e-02
 Reference value :  4.00640e-02
No. of Data Rows : 1032
FFT: Time span: 0.0512 s, input length: 1025, zero padding: 1023
FFT: Frequency resolution: 19.5312 Hz, output length: 1025
h1                  =  -1.434157e+01
h2                  =  -5.563862e+01
h3                  =  -6.142978e+01
ngspice-43 done
