
Note: No compatibility mode selected!


Circuit: ** sch_path: /home/sscspico/test_tools/coc_analog_vibes/isscc25/submitted_notebooks/analog_vibes/sim_sch/runs/run_2024-12-01_15-04-14/parameters/lin_params/run_41/tb_lin.sch

Doing analysis at TEMP = 125.000000 and TNOM = 27.000000


Initial Transient Solution
--------------------------

Node                                   Voltage
----                                   -------
avss                                         0
avdd                                       1.9
ibias1_10u                            0.788926
ipcm                                       1.2
vin                                    1.48284
vout                                   1.47453
ibias2_10u                             1.07738
x1.om                                    1.491
x1.y                                   1.50217
x1.op                                  1.51323
x1.vss                                 1.50145
x1.vcc                                  1.5028
x1.t2                                 0.581779
x1.t1                                 0.575642
x1.fb2                                0.878177
x1.fb1                                0.890106
x1.pb2                                 1.07008
x1.pb1                                 1.07008
x1.x                                  0.724039
x1.net1                               0.243366
x1.net2                               0.241598
x1.net3                               0.243187
x1.net4                               0.243187
v3#branch                                    0
v2#branch                                    0
v1#branch                         -0.000104161
v0#branch                          2.24084e-14

 Reference value :  0.00000e+00
 Reference value :  1.55140e-02
 Reference value :  2.90640e-02
 Reference value :  3.75640e-02
 Reference value :  4.99640e-02
No. of Data Rows : 1032
FFT: Time span: 0.0512 s, input length: 1025, zero padding: 1023
FFT: Frequency resolution: 19.5312 Hz, output length: 1025
h1                  =  -1.430092e+01
h2                  =  -6.214365e+01
h3                  =  -7.104348e+01
ngspice-43 done
