
Note: No compatibility mode selected!


Circuit: ** sch_path: /home/sscspico/test_tools/coc_analog_vibes/isscc25/submitted_notebooks/analog_vibes/sim_sch/runs/run_2024-12-01_15-04-14/parameters/lin_params/run_17/tb_lin.sch

Doing analysis at TEMP = 27.000000 and TNOM = 27.000000


Initial Transient Solution
--------------------------

Node                                   Voltage
----                                   -------
avss                                         0
avdd                                       1.9
ibias1_10u                            0.778189
ipcm                                       1.2
vin                                    1.48284
vout                                   1.47793
ibias2_10u                            0.994275
x1.om                                   1.2357
x1.y                                    1.2457
x1.op                                  1.25561
x1.vss                                 1.24566
x1.vcc                                 1.24567
x1.t2                                 0.598187
x1.t1                                 0.594424
x1.fb2                                0.842745
x1.fb1                                0.849577
x1.pb2                                0.886524
x1.pb1                                0.886524
x1.x                                  0.713529
x1.net1                               0.185075
x1.net2                               0.183955
x1.net3                               0.184488
x1.net4                               0.184488
v3#branch                                    0
v2#branch                                    0
v1#branch                         -0.000102389
v0#branch                          4.60535e-15

 Reference value :  0.00000e+00
 Reference value :  1.16640e-02
 Reference value :  2.26140e-02
 Reference value :  2.78140e-02
 Reference value :  3.22640e-02
 Reference value :  3.91640e-02
 Reference value :  4.67640e-02
No. of Data Rows : 1032
FFT: Time span: 0.0512 s, input length: 1025, zero padding: 1023
FFT: Frequency resolution: 19.5312 Hz, output length: 1025
h1                  =  -1.425255e+01
h2                  =  -7.017476e+01
h3                  =  -7.659580e+01
ngspice-43 done
