
Note: No compatibility mode selected!


Circuit: ** sch_path: /home/sscspico/test_tools/coc_analog_vibes/isscc25/submitted_notebooks/analog_vibes/sim_sch/runs/run_2024-12-01_14-47-07/parameters/lin_params/run_08/tb_lin.sch

Doing analysis at TEMP = -40.000000 and TNOM = 27.000000


Initial Transient Solution
--------------------------

Node                                   Voltage
----                                   -------
avss                                         0
avdd                                       1.9
ibias1_10u                            0.776718
ipcm                                       1.2
vin                                    1.48284
vout                                   1.47782
x1.om                                  1.22187
x1.y                                   1.23143
x1.op                                  1.24094
x1.vss                                 1.23142
x1.vcc                                 1.23142
x1.t2                                 0.604868
x1.t1                                 0.600869
x1.fb2                                0.824587
x1.fb1                                0.831544
x1.pb2                                0.925796
x1.pb1                                0.925796
x1.x                                  0.718113
x1.net1                               0.146859
ibias2_10u                            0.945475
x1.net2                               0.146046
x1.net3                               0.146694
x1.net4                               0.146694
v3#branch                                    0
v2#branch                                    0
v1#branch                         -0.000102578
v0#branch                         -1.64235e-15

 Reference value :  0.00000e+00
 Reference value :  1.35140e-02
 Reference value :  2.10140e-02
 Reference value :  3.43140e-02
 Reference value :  4.81640e-02
No. of Data Rows : 1032
FFT: Time span: 0.0512 s, input length: 1025, zero padding: 1023
FFT: Frequency resolution: 19.5312 Hz, output length: 1025
h1                  =  -1.425259e+01
h2                  =  -7.273235e+01
h3                  =  -7.762565e+01
ngspice-43 done
