
Note: No compatibility mode selected!


Circuit: ** sch_path: /home/sscspico/test_tools/coc_analog_vibes/isscc25/submitted_notebooks/analog_vibes/sim_sch/runs/run_2024-12-01_14-47-07/parameters/lin_params/run_05/tb_lin.sch

Doing analysis at TEMP = -40.000000 and TNOM = 27.000000


Initial Transient Solution
--------------------------

Node                                   Voltage
----                                   -------
avss                                         0
avdd                                       1.9
ibias1_10u                             0.82852
ipcm                                       1.2
vin                                    1.48284
vout                                   1.48006
x1.om                                  1.05719
x1.y                                    1.0659
x1.op                                  1.07451
x1.vss                                 1.06588
x1.vcc                                 1.06588
x1.t2                                 0.555018
x1.t1                                 0.552745
x1.fb2                                0.882833
x1.fb1                                0.886726
x1.pb2                                0.750938
x1.pb1                                0.750938
x1.x                                  0.764549
x1.net1                               0.164407
ibias2_10u                             1.02117
x1.net2                               0.163479
x1.net3                               0.163101
x1.net4                               0.163101
v3#branch                                    0
v2#branch                                    0
v1#branch                         -0.000100221
v0#branch                         -1.29123e-13

 Reference value :  0.00000e+00
 Reference value :  5.56335e-03
 Reference value :  1.13109e-02
 Reference value :  1.81373e-02
 Reference value :  2.63775e-02
 Reference value :  3.35337e-02
 Reference value :  4.10626e-02
 Reference value :  4.72081e-02
No. of Data Rows : 1045
FFT: Time span: 0.0512 s, input length: 1025, zero padding: 1023
FFT: Frequency resolution: 19.5312 Hz, output length: 1025
h1                  =  -1.422705e+01
h2                  =  -7.931494e+01
h3                  =  -9.064567e+01
ngspice-43 done
