
Note: No compatibility mode selected!


Circuit: ** sch_path: /home/sscspico/test_tools/coc_analog_vibes/isscc25/submitted_notebooks/analog_vibes/sim_sch/runs/run_2024-12-01_14-47-07/parameters/lin_params/run_07/tb_lin.sch

Doing analysis at TEMP = -40.000000 and TNOM = 27.000000


Initial Transient Solution
--------------------------

Node                                   Voltage
----                                   -------
avss                                         0
avdd                                       1.8
ibias1_10u                            0.776718
ipcm                                       1.2
vin                                    1.48284
vout                                   1.47809
x1.om                                  1.12189
x1.y                                   1.13248
x1.op                                    1.143
x1.vss                                 1.13247
x1.vcc                                 1.13247
x1.t2                                 0.605066
x1.t1                                 0.601288
x1.fb2                                0.823979
x1.fb1                                0.830502
x1.pb2                                0.825945
x1.pb1                                0.825945
x1.x                                   0.71601
x1.net1                               0.146859
ibias2_10u                            0.945475
x1.net2                               0.146046
x1.net3                               0.146267
x1.net4                               0.146267
v3#branch                                    0
v2#branch                                    0
v1#branch                         -0.000101584
v0#branch                         -1.11811e-13

 Reference value :  0.00000e+00
 Reference value :  1.07140e-02
 Reference value :  2.08140e-02
 Reference value :  3.02640e-02
 Reference value :  4.04640e-02
 Reference value :  4.98140e-02
No. of Data Rows : 1032
FFT: Time span: 0.0512 s, input length: 1025, zero padding: 1023
FFT: Frequency resolution: 19.5312 Hz, output length: 1025
h1                  =  -1.425727e+01
h2                  =  -6.763081e+01
h3                  =  -7.253738e+01
ngspice-43 done
