
Note: No compatibility mode selected!


Circuit: ** sch_path: /home/sscspico/test_tools/coc_analog_vibes/isscc25/submitted_notebooks/analog_vibes/sim_sch/runs/run_2024-12-01_15-04-14/parameters/lin_params/run_09/tb_lin.sch

Doing analysis at TEMP = -40.000000 and TNOM = 27.000000


Initial Transient Solution
--------------------------

Node                                   Voltage
----                                   -------
avss                                         0
avdd                                       1.7
ibias1_10u                            0.837668
ipcm                                       1.2
vin                                    1.48284
vout                                   1.47783
ibias2_10u                             1.03206
x1.om                                   1.0609
x1.y                                   1.07416
x1.op                                  1.08717
x1.vss                                  1.0741
x1.vcc                                  1.0741
x1.t2                                 0.545755
x1.t1                                 0.541664
x1.fb2                                0.890741
x1.fb1                                0.897788
x1.pb2                                0.754693
x1.pb1                                0.754693
x1.x                                  0.771533
x1.net1                               0.165388
x1.net2                               0.164457
x1.net3                               0.164055
x1.net4                               0.164055
v3#branch                                    0
v2#branch                                    0
v1#branch                         -9.94298e-05
v0#branch                         -1.08401e-13

 Reference value :  0.00000e+00
 Reference value :  8.36400e-03
 Reference value :  1.36140e-02
 Reference value :  2.07640e-02
 Reference value :  2.58640e-02
 Reference value :  3.42140e-02
 Reference value :  3.90640e-02
 Reference value :  4.40140e-02
 Reference value :  5.06140e-02
No. of Data Rows : 1032
FFT: Time span: 0.0512 s, input length: 1025, zero padding: 1023
FFT: Frequency resolution: 19.5312 Hz, output length: 1025
h1                  =  -1.428047e+01
h2                  =  -6.046304e+01
h3                  =  -6.661642e+01
ngspice-43 done
