
Note: No compatibility mode selected!


Circuit: ** sch_path: /home/sscspico/test_tools/coc_analog_vibes/isscc25/submitted_notebooks/analog_vibes/sim_sch/runs/run_2024-12-01_15-04-14/parameters/lin_params/run_34/tb_lin.sch

Doing analysis at TEMP = 125.000000 and TNOM = 27.000000


Initial Transient Solution
--------------------------

Node                                   Voltage
----                                   -------
avss                                         0
avdd                                       1.8
ibias1_10u                            0.779614
ipcm                                       1.2
vin                                    1.48284
vout                                   1.47686
ibias2_10u                             1.06501
x1.om                                  1.19414
x1.y                                   1.20711
x1.op                                  1.21991
x1.vss                                 1.20618
x1.vcc                                 1.20788
x1.t2                                 0.591653
x1.t1                                 0.587439
x1.fb2                                0.867042
x1.fb1                                0.875254
x1.pb2                                0.777755
x1.pb1                                0.777755
x1.x                                  0.706222
x1.net1                               0.241558
x1.net2                               0.239792
x1.net3                               0.239778
x1.net4                               0.239778
v3#branch                                    0
v2#branch                                    0
v1#branch                         -0.000101714
v0#branch                         -2.03325e-13

 Reference value :  0.00000e+00
 Reference value :  1.38140e-02
 Reference value :  2.58140e-02
 Reference value :  3.84640e-02
No. of Data Rows : 1032
FFT: Time span: 0.0512 s, input length: 1025, zero padding: 1023
FFT: Frequency resolution: 19.5312 Hz, output length: 1025
h1                  =  -1.428723e+01
h2                  =  -6.024785e+01
h3                  =  -6.679340e+01
ngspice-43 done
