
Note: No compatibility mode selected!


Circuit: ** sch_path: /home/sscspico/test_tools/coc_analog_vibes/isscc25/submitted_notebooks/analog_vibes/sim_sch/runs/run_2024-12-01_15-04-14/parameters/lin_params/run_23/tb_lin.sch

Doing analysis at TEMP = 27.000000 and TNOM = 27.000000


Initial Transient Solution
--------------------------

Node                                   Voltage
----                                   -------
avss                                         0
avdd                                       1.9
ibias1_10u                            0.750968
ipcm                                       1.2
vin                                    1.48284
vout                                   1.47638
ibias2_10u                            0.952872
x1.om                                  1.31395
x1.y                                    1.3245
x1.op                                  1.33499
x1.vss                                 1.32447
x1.vcc                                 1.32449
x1.t2                                 0.621878
x1.t1                                 0.617647
x1.fb2                                 0.81358
x1.fb1                                 0.82197
x1.pb2                                0.970633
x1.pb1                                0.970633
x1.x                                  0.690607
x1.net1                                0.17468
x1.net2                               0.173634
x1.net3                               0.174647
x1.net4                               0.174647
v3#branch                                    0
v2#branch                                    0
v1#branch                         -0.000104541
v0#branch                          1.89003e-14

 Reference value :  0.00000e+00
 Reference value :  8.61400e-03
 Reference value :  1.56140e-02
 Reference value :  2.06140e-02
 Reference value :  2.49140e-02
 Reference value :  3.18640e-02
 Reference value :  4.19640e-02
 Reference value :  5.01140e-02
No. of Data Rows : 1032
FFT: Time span: 0.0512 s, input length: 1025, zero padding: 1023
FFT: Frequency resolution: 19.5312 Hz, output length: 1025
h1                  =  -1.428078e+01
h2                  =  -6.490012e+01
h3                  =  -7.001066e+01
ngspice-43 done
