
Note: No compatibility mode selected!


Circuit: ** sch_path: /home/sscspico/test_tools/coc_analog_vibes/isscc25/submitted_notebooks/analog_vibes/sim_pex/runs/run_2024-12-01_16-14-17/parameters/psrr_params/run_42/tb_psrr_pex.sch

Doing analysis at TEMP = 125.000000 and TNOM = 27.000000

 Reference value :  1.00000e+00
No. of Data Rows : 241
psrr_dc             =  -7.221828e+01
ngspice-43 done
