
Note: No compatibility mode selected!


Circuit: ** sch_path: /home/sscspico/test_tools/coc_analog_vibes/isscc25/submitted_notebooks/analog_vibes/sim_sch/runs/run_2024-12-01_15-04-14/parameters/lin_params/run_38/tb_lin.sch

Doing analysis at TEMP = 125.000000 and TNOM = 27.000000


Initial Transient Solution
--------------------------

Node                                   Voltage
----                                   -------
avss                                         0
avdd                                       1.9
ibias1_10u                            0.719118
ipcm                                       1.2
vin                                    1.48284
vout                                   1.47261
ibias2_10u                            0.964974
x1.om                                  1.43575
x1.y                                   1.44791
x1.op                                  1.45998
x1.vss                                 1.44707
x1.vcc                                 1.44866
x1.t2                                 0.632419
x1.t1                                 0.628922
x1.fb2                                0.809559
x1.fb1                                0.820596
x1.pb2                                 1.04814
x1.pb1                                 1.04814
x1.x                                  0.666595
x1.net1                               0.212069
x1.net2                               0.210553
x1.net3                               0.212277
x1.net4                               0.212277
v3#branch                                    0
v2#branch                                    0
v1#branch                         -0.000110561
v0#branch                         -2.40523e-14

 Reference value :  0.00000e+00
 Reference value :  1.60640e-02
 Reference value :  3.51640e-02
 Reference value :  4.76640e-02
No. of Data Rows : 1032
FFT: Time span: 0.0512 s, input length: 1025, zero padding: 1023
FFT: Frequency resolution: 19.5312 Hz, output length: 1025
h1                  =  -1.434230e+01
h2                  =  -5.797566e+01
h3                  =  -6.447535e+01
ngspice-43 done
