
Note: No compatibility mode selected!


Circuit: ** sch_path: /home/sscspico/test_tools/coc_analog_vibes/isscc25/submitted_notebooks/analog_vibes/sim_sch/runs/run_2024-12-01_14-47-07/parameters/lin_params/run_14/tb_lin.sch

Doing analysis at TEMP = -40.000000 and TNOM = 27.000000


Initial Transient Solution
--------------------------

Node                                   Voltage
----                                   -------
avss                                         0
avdd                                       1.9
ibias1_10u                            0.767653
ipcm                                       1.2
vin                                    1.48284
vout                                    1.4794
x1.om                                  1.01661
x1.y                                   1.02605
x1.op                                  1.03544
x1.vss                                 1.02604
x1.vcc                                 1.02604
x1.t2                                 0.614564
x1.t1                                 0.611896
x1.fb2                                0.814859
x1.fb1                                 0.81946
x1.pb2                                0.718988
x1.pb1                                0.718988
x1.x                                  0.705695
x1.net1                               0.145855
ibias2_10u                            0.934622
x1.net2                               0.145046
x1.net3                               0.144817
x1.net4                               0.144817
v3#branch                                    0
v2#branch                                    0
v1#branch                          -0.00010112
v0#branch                          3.03162e-14

 Reference value :  0.00000e+00
 Reference value :  1.56640e-02
 Reference value :  3.00140e-02
 Reference value :  4.39140e-02
No. of Data Rows : 1032
FFT: Time span: 0.0512 s, input length: 1025, zero padding: 1023
FFT: Frequency resolution: 19.5312 Hz, output length: 1025
h1                  =  -1.423322e+01
h2                  =  -7.385997e+01
h3                  =  -7.842323e+01
ngspice-43 done
