
Note: No compatibility mode selected!


Circuit: ** sch_path: /home/sscspico/test_tools/coc_analog_vibes/isscc25/submitted_notebooks/analog_vibes/sim_sch/runs/run_2024-12-01_15-04-14/parameters/lin_params/run_44/tb_lin.sch

Doing analysis at TEMP = 125.000000 and TNOM = 27.000000


Initial Transient Solution
--------------------------

Node                                   Voltage
----                                   -------
avss                                         0
avdd                                       1.9
ibias1_10u                            0.710121
ipcm                                       1.2
vin                                    1.48284
vout                                    1.4752
ibias2_10u                            0.953469
x1.om                                  1.23628
x1.y                                   1.24801
x1.op                                  1.25966
x1.vss                                 1.24723
x1.vcc                                 1.24871
x1.t2                                 0.638354
x1.t1                                 0.636328
x1.fb2                                0.803653
x1.fb1                                0.811308
x1.pb2                                 0.85289
x1.pb1                                 0.85289
x1.x                                  0.656269
x1.net1                               0.210691
x1.net2                               0.209177
x1.net3                               0.210029
x1.net4                               0.210029
v3#branch                                    0
v2#branch                                    0
v1#branch                         -0.000110911
v0#branch                          1.41018e-13

 Reference value :  0.00000e+00
 Reference value :  1.09140e-02
 Reference value :  2.40140e-02
 Reference value :  3.45640e-02
 Reference value :  4.30140e-02
No. of Data Rows : 1032
FFT: Time span: 0.0512 s, input length: 1025, zero padding: 1023
FFT: Frequency resolution: 19.5312 Hz, output length: 1025
h1                  =  -1.430103e+01
h2                  =  -6.056705e+01
h3                  =  -6.741799e+01
ngspice-43 done
