
Note: No compatibility mode selected!


Circuit: ** sch_path: /home/sscspico/test_tools/coc_analog_vibes/isscc25/submitted_notebooks/analog_vibes/sim_sch/runs/run_2024-12-01_15-04-14/parameters/lin_params/run_21/tb_lin.sch

Doing analysis at TEMP = 27.000000 and TNOM = 27.000000


Initial Transient Solution
--------------------------

Node                                   Voltage
----                                   -------
avss                                         0
avdd                                       1.7
ibias1_10u                            0.750968
ipcm                                       1.2
vin                                    1.48284
vout                                   1.47491
ibias2_10u                            0.952872
x1.om                                  1.10974
x1.y                                   1.12664
x1.op                                  1.14333
x1.vss                                 1.12654
x1.vcc                                 1.12657
x1.t2                                 0.622118
x1.t1                                 0.616953
x1.fb2                                0.810918
x1.fb1                                0.821022
x1.pb2                                0.770956
x1.pb1                                0.770956
x1.x                                  0.683822
x1.net1                                0.17468
x1.net2                               0.173634
x1.net3                               0.173735
x1.net4                               0.173735
v3#branch                                    0
v2#branch                                    0
v1#branch                         -0.000102038
v0#branch                          1.20603e-13

 Reference value :  0.00000e+00
 Reference value :  1.22640e-02
 Reference value :  2.38140e-02
 Reference value :  3.69140e-02
 Reference value :  5.07640e-02
No. of Data Rows : 1032
FFT: Time span: 0.0512 s, input length: 1025, zero padding: 1023
FFT: Frequency resolution: 19.5312 Hz, output length: 1025
h1                  =  -1.436886e+01
h2                  =  -5.333987e+01
h3                  =  -5.810178e+01
ngspice-43 done
