
Note: No compatibility mode selected!


Circuit: ** sch_path: /home/sscspico/test_tools/coc_analog_vibes/isscc25/submitted_notebooks/analog_vibes/sim_sch/runs/run_2024-12-01_14-47-07/parameters/lin_params/run_42/tb_lin.sch

Doing analysis at TEMP = 125.000000 and TNOM = 27.000000


Initial Transient Solution
--------------------------

Node                                   Voltage
----                                   -------
avss                                         0
avdd                                       1.7
ibias1_10u                            0.710121
ipcm                                       1.2
vin                                    1.48284
vout                                   1.47153
x1.om                                  1.02928
x1.y                                   1.05073
x1.op                                  1.07186
x1.vss                                 1.04816
x1.vcc                                 1.05298
x1.t2                                 0.637624
x1.t1                                 0.634566
x1.fb2                                0.799363
x1.fb1                                0.810182
x1.pb2                                0.653362
x1.pb1                                0.653362
x1.x                                  0.646264
x1.net1                               0.210691
ibias2_10u                            0.953469
x1.net2                               0.209177
x1.net3                               0.208743
x1.net4                               0.208743
v3#branch                                    0
v2#branch                                    0
v1#branch                         -0.000107572
v0#branch                          4.50736e-14

 Reference value :  0.00000e+00
 Reference value :  1.23140e-02
 Reference value :  2.25140e-02
 Reference value :  3.50140e-02
 Reference value :  4.72140e-02
No. of Data Rows : 1032
FFT: Time span: 0.0512 s, input length: 1025, zero padding: 1023
FFT: Frequency resolution: 19.5312 Hz, output length: 1025
h1                  =  -1.445988e+01
h2                  =  -4.895528e+01
h3                  =  -5.418238e+01
ngspice-43 done
