
Note: No compatibility mode selected!


Circuit: ** sch_path: /home/sscspico/test_tools/coc_analog_vibes/isscc25/submitted_notebooks/analog_vibes/sim_sch/runs/run_2024-12-01_14-47-07/parameters/lin_params/run_13/tb_lin.sch

Doing analysis at TEMP = -40.000000 and TNOM = 27.000000


Initial Transient Solution
--------------------------

Node                                   Voltage
----                                   -------
avss                                         0
avdd                                       1.8
ibias1_10u                            0.767653
ipcm                                       1.2
vin                                    1.48284
vout                                   1.47962
x1.om                                  0.91711
x1.y                                  0.927384
x1.op                                 0.937634
x1.vss                                0.927383
x1.vcc                                0.927381
x1.t2                                 0.614767
x1.t1                                 0.612269
x1.fb2                                0.813971
x1.fb1                                0.818169
x1.pb2                                0.619167
x1.pb1                                0.619167
x1.x                                  0.703302
x1.net1                               0.145855
ibias2_10u                            0.934622
x1.net2                               0.145046
x1.net3                               0.144306
x1.net4                               0.144306
v3#branch                                    0
v2#branch                                    0
v1#branch                         -9.99624e-05
v0#branch                         -8.55709e-14

 Reference value :  0.00000e+00
 Reference value :  1.42640e-02
 Reference value :  2.67140e-02
 Reference value :  3.77640e-02
No. of Data Rows : 1032
FFT: Time span: 0.0512 s, input length: 1025, zero padding: 1023
FFT: Frequency resolution: 19.5312 Hz, output length: 1025
h1                  =  -1.423838e+01
h2                  =  -6.863499e+01
h3                  =  -7.294595e+01
ngspice-43 done
