
Note: No compatibility mode selected!


Circuit: ** sch_path: /home/sscspico/test_tools/coc_analog_vibes/isscc25/submitted_notebooks/analog_vibes/sim_sch/runs/run_2024-12-01_14-47-07/parameters/lin_params/run_19/tb_lin.sch

Doing analysis at TEMP = 27.000000 and TNOM = 27.000000


Initial Transient Solution
--------------------------

Node                                   Voltage
----                                   -------
avss                                         0
avdd                                       1.8
ibias1_10u                            0.806533
ipcm                                       1.2
vin                                    1.48284
vout                                   1.47922
x1.om                                  1.05503
x1.y                                   1.06594
x1.op                                   1.0767
x1.vss                                 1.06588
x1.vcc                                 1.06589
x1.t2                                 0.572694
x1.t1                                 0.569803
x1.fb2                                0.873771
x1.fb1                                0.878848
x1.pb2                                0.696684
x1.pb1                                0.696684
x1.x                                  0.735488
x1.net1                               0.197002
ibias2_10u                             1.03859
x1.net2                               0.195794
x1.net3                               0.195157
x1.net4                               0.195157
v3#branch                                    0
v2#branch                                    0
v1#branch                         -0.000100113
v0#branch                         -8.99633e-14

 Reference value :  0.00000e+00
 Reference value :  1.17640e-02
 Reference value :  2.48140e-02
 Reference value :  3.64140e-02
 Reference value :  4.60640e-02
No. of Data Rows : 1032
FFT: Time span: 0.0512 s, input length: 1025, zero padding: 1023
FFT: Frequency resolution: 19.5312 Hz, output length: 1025
h1                  =  -1.423879e+01
h2                  =  -6.871103e+01
h3                  =  -7.661579e+01
ngspice-43 done
