
Note: No compatibility mode selected!


Circuit: ** sch_path: /home/sscspico/test_tools/coc_analog_vibes/isscc25/submitted_notebooks/analog_vibes/sim_pex/runs/run_2024-12-01_16-14-17/parameters/lin_params/run_02/tb_lin_pex.sch

Doing analysis at TEMP = -40.000000 and TNOM = 27.000000


Initial Transient Solution
--------------------------

Node                                   Voltage
----                                   -------
avss                                         0
avdd                                       1.9
ibias1_10u                            0.953186
ipcm                                       1.2
vin                                    1.48284
vout                                   1.48004
ibias2_10u                            0.729538
v3#branch                                    0
v2#branch                                    0
v1#branch                         -0.000101437
v0#branch                         -8.10495e-16

 Reference value :  0.00000e+00
 Reference value :  9.35775e-03
 Reference value :  1.66827e-02
 Reference value :  2.58203e-02
 Reference value :  3.35148e-02
 Reference value :  4.22124e-02
 Reference value :  5.09374e-02
No. of Data Rows : 1068
FFT: Time span: 0.0512 s, input length: 1025, zero padding: 1023
FFT: Frequency resolution: 19.5312 Hz, output length: 1025
h1                  =  -1.422102e+01
h2                  =  -7.853786e+01
h3                  =  -8.560705e+01
ngspice-43 done
