
Note: No compatibility mode selected!


Circuit: ** sch_path: /home/sscspico/test_tools/coc_analog_vibes/isscc25/submitted_notebooks/analog_vibes/sim_sch/runs/run_2024-12-01_15-04-14/parameters/ac_params/run_18/tb_ac.sch

Doing analysis at TEMP = 27.000000 and TNOM = 27.000000

 Reference value :  1.00000e+00
No. of Data Rows : 241
a0                  =  4.921585e+01
ugf                 =  1.322097e+06
pm                  =  8.812044e+01
ngspice-43 done
