
Note: No compatibility mode selected!


Circuit: ** sch_path: /home/sscspico/test_tools/coc_analog_vibes/isscc25/submitted_notebooks/analog_vibes/sim_sch/runs/run_2024-12-01_14-47-07/parameters/lin_params/run_16/tb_lin.sch

Doing analysis at TEMP = 27.000000 and TNOM = 27.000000


Initial Transient Solution
--------------------------

Node                                   Voltage
----                                   -------
avss                                         0
avdd                                       1.8
ibias1_10u                            0.778189
ipcm                                       1.2
vin                                    1.48284
vout                                   1.47797
x1.om                                  1.13534
x1.y                                   1.14677
x1.op                                  1.15808
x1.vss                                 1.14672
x1.vcc                                 1.14675
x1.t2                                 0.598412
x1.t1                                 0.594684
x1.fb2                                0.841861
x1.fb1                                0.848575
x1.pb2                                 0.78667
x1.pb1                                 0.78667
x1.x                                  0.711013
x1.net1                               0.185075
ibias2_10u                            0.994275
x1.net2                               0.183955
x1.net3                               0.183999
x1.net4                               0.183999
v3#branch                                    0
v2#branch                                    0
v1#branch                          -0.00010143
v0#branch                         -1.41795e-13

 Reference value :  0.00000e+00
 Reference value :  7.56400e-03
 Reference value :  1.84140e-02
 Reference value :  3.03640e-02
 Reference value :  4.21640e-02
No. of Data Rows : 1032
FFT: Time span: 0.0512 s, input length: 1025, zero padding: 1023
FFT: Frequency resolution: 19.5312 Hz, output length: 1025
h1                  =  -1.426327e+01
h2                  =  -6.484389e+01
h3                  =  -7.057135e+01
ngspice-43 done
