
Note: No compatibility mode selected!


Circuit: ** sch_path: /home/sscspico/test_tools/coc_analog_vibes/isscc25/submitted_notebooks/analog_vibes/sim_sch/runs/run_2024-12-01_15-04-14/parameters/power_params/run_32/tb_power.sch

Doing analysis at TEMP = 130.000000 and TNOM = 27.000000

 Reference value :  0.00000e+00
No. of Data Rows : 1
ngspice-43 done
