
Note: No compatibility mode selected!


Circuit: ** sch_path: /home/sscspico/test_tools/coc_analog_vibes/isscc25/submitted_notebooks/analog_vibes/sim_sch/runs/run_2024-12-01_14-47-07/parameters/lin_params/run_28/tb_lin.sch

Doing analysis at TEMP = 27.000000 and TNOM = 27.000000


Initial Transient Solution
--------------------------

Node                                   Voltage
----                                   -------
avss                                         0
avdd                                       1.8
ibias1_10u                            0.741903
ipcm                                       1.2
vin                                    1.48284
vout                                    1.4782
x1.om                                   1.0105
x1.y                                   1.02218
x1.op                                  1.03379
x1.vss                                 1.02214
x1.vcc                                 1.02216
x1.t2                                 0.630218
x1.t1                                 0.627561
x1.fb2                                0.804251
x1.fb1                                 0.80976
x1.pb2                                0.667797
x1.pb1                                0.667797
x1.x                                  0.676707
x1.net1                                0.17355
ibias2_10u                            0.941763
x1.net2                               0.172509
x1.net3                               0.172103
x1.net4                               0.172103
v3#branch                                    0
v2#branch                                    0
v1#branch                         -0.000102915
v0#branch                         -5.04211e-14

 Reference value :  0.00000e+00
 Reference value :  1.26640e-02
 Reference value :  2.55640e-02
 Reference value :  3.59640e-02
 Reference value :  4.74140e-02
No. of Data Rows : 1032
FFT: Time span: 0.0512 s, input length: 1025, zero padding: 1023
FFT: Frequency resolution: 19.5312 Hz, output length: 1025
h1                  =  -1.426952e+01
h2                  =  -6.231958e+01
h3                  =  -6.709260e+01
ngspice-43 done
