
Note: No compatibility mode selected!


Circuit: ** sch_path: /home/sscspico/test_tools/coc_analog_vibes/isscc25/submitted_notebooks/analog_vibes/sim_sch/runs/run_2024-12-01_14-47-07/parameters/lin_params/run_35/tb_lin.sch

Doing analysis at TEMP = 125.000000 and TNOM = 27.000000


Initial Transient Solution
--------------------------

Node                                   Voltage
----                                   -------
avss                                         0
avdd                                       1.9
ibias1_10u                            0.779614
ipcm                                       1.2
vin                                    1.48284
vout                                   1.47731
x1.om                                  1.29528
x1.y                                   1.30596
x1.op                                  1.31653
x1.vss                                  1.3053
x1.vcc                                 1.30653
x1.t2                                 0.591359
x1.t1                                 0.587446
x1.fb2                                0.868529
x1.fb1                                0.876213
x1.pb2                                 0.87759
x1.pb1                                 0.87759
x1.x                                  0.709549
x1.net1                               0.241558
ibias2_10u                             1.06501
x1.net2                               0.239792
x1.net3                               0.240428
x1.net4                               0.240428
v3#branch                                    0
v2#branch                                    0
v1#branch                         -0.000102729
v0#branch                         -1.09376e-13

 Reference value :  0.00000e+00
 Reference value :  7.26400e-03
 Reference value :  1.51640e-02
 Reference value :  2.35140e-02
 Reference value :  3.37140e-02
 Reference value :  4.46140e-02
No. of Data Rows : 1032
FFT: Time span: 0.0512 s, input length: 1025, zero padding: 1023
FFT: Frequency resolution: 19.5312 Hz, output length: 1025
h1                  =  -1.426279e+01
h2                  =  -6.561329e+01
h3                  =  -7.392713e+01
ngspice-43 done
