
Note: No compatibility mode selected!


Circuit: ** sch_path: /home/sscspico/test_tools/coc_analog_vibes/isscc25/submitted_notebooks/analog_vibes/sim_sch/runs/run_2024-12-01_15-04-14/parameters/ac_params/run_38/tb_ac.sch

Doing analysis at TEMP = 125.000000 and TNOM = 27.000000

 Reference value :  1.00000e+00
No. of Data Rows : 241
a0                  =  4.071624e+01
ugf                 =  4.869260e+05
pm                  =  9.003231e+01
ngspice-43 done
