
Note: No compatibility mode selected!


Circuit: ** sch_path: /home/sscspico/test_tools/coc_analog_vibes/isscc25/submitted_notebooks/analog_vibes/sim_pex/runs/run_2024-12-01_16-14-17/parameters/lin_params/run_19/tb_lin_pex.sch

Doing analysis at TEMP = 27.000000 and TNOM = 27.000000


Initial Transient Solution
--------------------------

Node                                   Voltage
----                                   -------
avss                                         0
avdd                                       1.8
ibias1_10u                             1.00263
ipcm                                       1.2
vin                                    1.48284
vout                                    1.4803
ibias2_10u                            0.721632
v3#branch                                    0
v2#branch                                    0
v1#branch                         -0.000100327
v0#branch                         -3.01679e-17

 Reference value :  0.00000e+00
 Reference value :  1.62640e-02
 Reference value :  3.18140e-02
 Reference value :  4.86140e-02
No. of Data Rows : 1032
FFT: Time span: 0.0512 s, input length: 1025, zero padding: 1023
FFT: Frequency resolution: 19.5312 Hz, output length: 1025
h1                  =  -1.422422e+01
h2                  =  -7.152174e+01
h3                  =  -7.855135e+01
ngspice-43 done
